data_image0
_chemical_formula_structural       CHCHCHCHCHCH2O5COCHCHCHCHCH2O4CHCHCHCHCHCH2O5COHCHCHCHCHCH2O4H13
_chemical_formula_sum              "C24 H40 O20"
_cell_length_a       10.379998696454944
_cell_length_b       8.200478353987869
_cell_length_c       7.7840007553585036
_cell_angle_alpha    96.54697007923902
_cell_angle_beta     90.00000216713102
_cell_angle_gamma    89.99999953721111

_space_group_name_H-M_alt    "P 1"
_space_group_IT_number       1

loop_
  _space_group_symop_operation_xyz
  'x, y, z'

loop_
  _atom_site_type_symbol
  _atom_site_label
  _atom_site_symmetry_multiplicity
  _atom_site_fract_x
  _atom_site_fract_y
  _atom_site_fract_z
  _atom_site_occupancy
  C   C1        1.0  0.0  0.0  0.0  1.0000
  H   H1        1.0  0.019057573392265034  0.03279229161780377  0.14033656960628954  1.0000
  C   C2        1.0  0.9051058720844685  0.8579845212571381  0.9600739294068517  1.0000
  H   H2        1.0  0.9043022949309106  0.8119240773858897  0.8191015375700985  1.0000
  C   C3        1.0  0.7719652044209667  0.9049956877497063  0.0261010372510624  1.0000
  H   H3        1.0  0.767684422609417  0.9051929618295995  0.17096855039382494  1.0000
  C   C4        1.0  0.7317917981638568  0.07192834399916394  0.978963588254096  1.0000
  H   H4        1.0  0.7102748692139433  0.05549732349170744  0.8354618966028694  1.0000
  C   C5        1.0  0.8335259250433392  0.20093290570865877  0.01205955286279075  1.0000
  H   H5        1.0  0.854730908524414  0.22723788592834865  0.15440044860379742  1.0000
  C   C6        1.0  0.8037571299701338  0.3609918370402707  0.9390450554828567  1.0000
  H   H6        1.0  0.7693949773683861  0.34634709161730015  0.8038168640556734  1.0000
  H   H7        1.0  0.8887313336521472  0.44316067847679175  0.9492321943771443  1.0000
  O   O1        1.0  0.9564546039435191  0.7279980478028938  0.0471066520394015  1.0000
  O   O2        1.0  0.6808283962359085  0.7810237124241037  0.9590514865084652  1.0000
  O   O3        1.0  0.6143544122551519  0.12802261341384702  0.06496662413781704  1.0000
  O   O4        1.0  0.9514450271491297  0.14103348955135614  0.9299674123511739  1.0000
  O   O5        1.0  0.702697410963018  0.444949113785373  0.03404764393710462  1.0000
  C   C7        1.0  0.49999983249321667  0.08395731462597879  0.972057956290047  1.0000
  O   O6        1.0  0.11435446822277473  0.9559347108169118  0.9070913458454404  1.0000
  C   C8        1.0  0.40510592241476984  0.22609552871132607  0.011998862308498457  1.0000
  H   H8        1.0  0.4024737024369428  0.26960442339264123  0.15353130420656333  1.0000
  C   C9        1.0  0.27196528469339515  0.17908433911139365  0.9459716435863389  1.0000
  H   H9        1.0  0.2684538206136956  0.1804583057523783  0.8022673394634092  1.0000
  C   C10       1.0  0.2317918525036032  0.012028952470062795  0.9929659414014521  1.0000
  H   H10       1.0  0.21050861540776689  0.028035389578731702  0.1366346588414315  1.0000
  C   C11       1.0  0.33352594750079617  0.8830244862411821  0.9599984332996564  1.0000
  H   H11       1.0  0.353575732045697  0.855874215957462  0.818114826634422  1.0000
  C   C12       1.0  0.3037571525624523  0.7229655437790827  0.03301290641477087  1.0000
  H   H12       1.0  0.2786390593666688  0.7403342220617125  0.17212722031523167  1.0000
  H   H13       1.0  0.38510895290766356  0.6352815691652713  0.014824271235284747  1.0000
  O   O7        1.0  0.4564546794158551  0.3560819972143564  0.9249661623052488  1.0000
  O   O8        1.0  0.18082848854714184  0.3030563262574455  0.013021194274449643  1.0000
  O   O9        1.0  0.4514450047525082  0.943046559421731  0.041976911308415146  1.0000
  O   O10       1.0  0.20269740693959223  0.6390082743905623  0.9380103577711391  1.0000
  C   C13       1.0  0.2610789395256987  0.4969928375745899  0.518973317079408  1.0000
  H   H14       1.0  0.28095228557100066  0.5114082026837607  0.6604577942025296  1.0000
  C   C14       1.0  0.16618487259899214  0.35976443485529086  0.4609943268083555  1.0000
  H   H15       1.0  0.166293507268876  0.33066047636223206  0.3163692554929435  1.0000
  C   C15       1.0  0.0332368523458941  0.40505717463229507  0.531054544905497  1.0000
  H   H16       1.0  0.03127043855870279  0.4149366150412942  0.6754671822814424  1.0000
  C   C16       1.0  0.9942194852158767  0.5680619647217319  0.4680289785057622  1.0000
  H   H17       1.0  0.9827135825190053  0.5535848075903049  0.32518923484218787  1.0000
  C   C17       1.0  0.09556824192409026  0.6993986324822711  0.526970359768361  1.0000
  H   H18       1.0  0.0972169388577096  0.727802172696496  0.6700042462030354  1.0000
  C   C18       1.0  0.06926766422929413  0.8570026706132935  0.4379878334848931  1.0000
  H   H19       1.0  0.026418539773251055  0.8279498100866025  0.3085037092554318  1.0000
  H   H20       1.0  0.15918573933758745  0.9276914328157752  0.42898992499414623  1.0000
  O   O11       1.0  0.20876677845790467  0.20792938820065665  0.5140562854119609  1.0000
  O   O12       1.0  0.9486510867863356  0.27494796215444506  0.47200365935913446  1.0000
  O   O13       1.0  0.876107688789313  0.6279613901860239  0.548965050005757  1.0000
  O   O14       1.0  0.22061649783444784  0.6490733894477196  0.4709511077868007  1.0000
  O   O15       1.0  0.9736992718977513  0.9560575444745035  0.5279950417955528  1.0000
  C   C19       1.0  0.7610788026654044  0.5869646884206932  0.45295633040974836  1.0000
  O   O16       1.0  0.3761079164727745  0.45599613794580685  0.4229645541643495  1.0000
  H   H21       1.0  0.781649813922304  0.572852592620968  0.3121825543339444  1.0000
  C   C20       1.0  0.6661848506960429  0.7241928957585141  0.5109352816877046  1.0000
  H   H22       1.0  0.6630153270408078  0.7453474432916327  0.6563064453696974  1.0000
  C   C21       1.0  0.5332369033498865  0.6790228748773877  0.44101830811530396  1.0000
  H   H23       1.0  0.5282714458757807  0.6759567803184348  0.29784835598523085  1.0000
  C   C22       1.0  0.4942197035262792  0.5160182218605489  0.5040437711500908  1.0000
  H   H24       1.0  0.482645763790128  0.5287265838624413  0.6471910276462192  1.0000
  C   C23       1.0  0.595568481697805  0.38455877943372196  0.4449592162037882  1.0000
  H   H25       1.0  0.5957431969805373  0.3535802428315825  0.30255966636759335  1.0000
  C   C24       1.0  0.5692678822471284  0.22695477108637152  0.5340701952459088  1.0000
  H   H26       1.0  0.5409187291915076  0.2580338283195721  0.6700900484329193  1.0000
  H   H27       1.0  0.6545221974460317  0.14550935881714822  0.5243410605879226  1.0000
  O   O17       1.0  0.7087667973376357  0.8760279045381164  0.45800178416664916  1.0000
  O   O18       1.0  0.44865112984696803  0.8090093473014055  0.4999259450711846  1.0000
  O   O19       1.0  0.7206164690474061  0.435006583648035  0.5009931748581529  1.0000
  O   O20       1.0  0.473699541222248  0.128022630968871  0.444077718276667  1.0000
  H   H28       1.0  0.8908461169661207  0.6400562227825366  0.04229286011619925  1.0000
  H   H29       1.0  0.6018877024685854  0.7956316970913374  0.030399684862003472  1.0000
  H   H30       1.0  0.6858875065231906  0.39645488116775474  0.14224036554362296  1.0000
  H   H31       1.0  0.5414900687960134  0.3906242242656715  0.9726718717769252  1.0000
  H   H32       1.0  0.21584950872660102  0.4120974100701135  0.9943830420823633  1.0000
  H   H33       1.0  0.11966274134361155  0.6953785881119194  0.9644464640631304  1.0000
  H   H34       1.0  0.16582905373545562  0.18887453026386836  0.622742258768421  1.0000
  H   H35       1.0  0.8631327652042184  0.29472109934794877  0.5255454683409684  1.0000
  H   H36       1.0  0.010016155442250964  0.018719405598240695  0.6314800402120044  1.0000
  H   H37       1.0  0.7977601776036919  0.8960927580301337  0.5012585095094315  1.0000
  H   H38       1.0  0.3784287723331796  0.7702303787497942  0.5685077347422627  1.0000
  H   H39       1.0  0.39053777473408485  0.1859511137352533  0.4539462404132729  1.0000
  H   H40       1.0  0.5193135151873425  0.05135613818771055  0.8316884616437542  1.0000
